Version 4
SHEET 1 880 680
WIRE -16 80 -64 80
WIRE 128 80 80 80
WIRE 160 80 128 80
WIRE 224 80 160 80
WIRE 368 80 304 80
WIRE 480 80 368 80
WIRE -64 160 -64 80
WIRE 64 176 64 128
WIRE 160 176 160 80
WIRE 368 176 368 80
WIRE 480 176 480 80
WIRE 128 256 128 80
WIRE 128 256 64 256
WIRE -64 336 -64 240
WIRE 160 336 160 240
WIRE 160 336 -64 336
WIRE 272 336 160 336
WIRE 368 336 368 240
WIRE 368 336 272 336
WIRE 480 336 480 256
WIRE 480 336 368 336
WIRE 272 352 272 336
FLAG 272 352 0
FLAG -64 80 Input
FLAG 480 80 Output
SYMBOL diode 176 240 R180
WINDOW 0 24 64 Left 2
WINDOW 3 24 0 Left 2
SYMATTR InstName D1
SYMBOL ind 208 96 R270
WINDOW 0 32 56 VTop 2
WINDOW 3 5 56 VBottom 2
SYMATTR InstName L1
SYMATTR Value 5m
SYMBOL cap 352 176 R0
SYMATTR InstName C1
SYMATTR Value 1.17µ
SYMBOL res 464 160 R0
SYMATTR InstName R1
SYMATTR Value 10
SYMBOL voltage -64 144 R0
WINDOW 123 0 0 Left 0
WINDOW 39 0 0 Left 0
SYMATTR InstName V1
SYMATTR Value 30
SYMBOL nmos -16 128 R270
SYMATTR InstName M1
SYMATTR Value IRFH5104
SYMBOL voltage 64 160 R0
WINDOW 3 24 96 Left 0
WINDOW 123 0 0 Left 0
WINDOW 39 0 0 Left 0
SYMATTR InstName V2
SYMATTR Value PULSE(15 0 0 0 0 16.2u 25u)
TEXT -32 352 Left 2 !.tran 0.05
TEXT 184 168 Left 2 !.model D D(Vfwd = 0)
